8
*****
C         -0.01140        1.25540        0.00110
C          1.27560        0.76130       -0.00670
N          1.38850       -0.61530       -0.01120
C          0.18560       -1.14720       -0.00830
S         -1.13000       -0.04520        0.00150
H         -0.33720        2.28530        0.00600
H          2.17480        1.36560       -0.00960
H          0.02720       -2.21770       -0.01210
